<?xml version="1.0" encoding="UTF-8"?>

<!-- generated on 2023-03-05 19:19:14 by Eclipse SUMO netedit Version 1.15.0
<configuration xmlns:xsi="http://www.w3.org/2001/XMLSchema-instance" xsi:noNamespaceSchemaLocation="http://sumo.dlr.de/xsd/netconvertConfiguration.xsd">

    <output>
        <output-file value="C:\Users\dell\Desktop\Sumo\demo.net.xml"/>
    </output>

    <processing>
        <offset.disable-normalization value="true"/>
    </processing>

    <junctions>
        <no-turnarounds value="true"/>
    </junctions>

</configuration>
-->

<net version="1.9" junctionCornerDetail="5" limitTurnSpeed="5.50" xmlns:xsi="http://www.w3.org/2001/XMLSchema-instance" xsi:noNamespaceSchemaLocation="http://sumo.dlr.de/xsd/net_file.xsd">

    <location netOffset="0.00,0.00" convBoundary="-58.36,-98.93,173.57,81.72" origBoundary="10000000000.00,10000000000.00,-10000000000.00,-10000000000.00" projParameter="!"/>

    <edge id=":J0_0" function="internal">
        <lane id=":J0_0_0" index="0" speed="6.08" length="9.06" shape="7.40,65.22 9.63,66.49 11.59,66.62 13.27,65.61 14.69,63.47"/>
        <lane id=":J0_0_1" index="1" speed="6.94" length="12.17" shape="7.40,65.22 10.78,67.33 13.61,67.97 15.87,67.13 17.58,64.83"/>
        <lane id=":J0_0_2" index="2" speed="7.73" length="15.37" shape="7.40,65.22 11.93,68.17 15.63,69.31 18.47,68.65 20.48,66.19"/>
    </edge>
    <edge id=":J0_3" function="internal">
        <lane id=":J0_3_0" index="0" speed="13.89" length="20.89" shape="7.40,65.22 11.68,68.84 14.79,71.37 18.26,72.87 23.62,73.38"/>
        <lane id=":J0_3_1" index="1" speed="13.89" length="20.89" shape="5.43,67.75 10.22,71.73 13.72,74.47 17.63,76.05 23.60,76.58"/>
        <lane id=":J0_3_2" index="2" speed="13.89" length="20.89" shape="3.47,70.28 8.76,74.63 12.65,77.57 16.99,79.23 23.59,79.78"/>
    </edge>
    <edge id=":J1_0" function="internal">
        <lane id=":J1_0_0" index="0" speed="13.89" length="2.63" shape="92.09,73.71 92.35,73.71 92.53,73.68 92.70,73.61 92.92,73.48"/>
        <lane id=":J1_0_1" index="1" speed="7.47" length="2.63" shape="92.08,76.91 92.86,76.90 93.39,76.82 93.89,76.62 94.56,76.23"/>
        <lane id=":J1_0_2" index="2" speed="9.49" length="2.63" shape="92.06,80.11 93.36,80.09 94.25,79.96 95.08,79.62 96.21,78.98"/>
    </edge>
    <edge id=":J2_0" function="internal">
        <lane id=":J2_0_0" index="0" speed="4.16" length="1.32" shape="153.62,37.21 153.89,37.01 154.11,36.77 154.26,36.49 154.36,36.16"/>
        <lane id=":J2_0_1" index="1" speed="6.56" length="3.96" shape="155.26,39.95 156.08,39.35 156.72,38.63 157.19,37.79 157.49,36.82"/>
        <lane id=":J2_0_2" index="2" speed="8.30" length="6.60" shape="156.90,42.70 158.26,41.70 159.33,40.50 160.12,39.09 160.63,37.48"/>
    </edge>
    <edge id=":J3_0" function="internal">
        <lane id=":J3_0_0" index="0" speed="4.18" length="1.28" shape="164.91,-13.92 164.94,-14.25 164.92,-14.56 164.82,-14.86 164.67,-15.15"/>
        <lane id=":J3_0_1" index="1" speed="6.60" length="3.85" shape="168.04,-13.26 168.15,-14.24 168.07,-15.18 167.79,-16.08 167.32,-16.94"/>
        <lane id=":J3_0_2" index="2" speed="8.35" length="6.42" shape="171.17,-12.60 171.36,-14.23 171.22,-15.79 170.76,-17.29 169.97,-18.73"/>
    </edge>
    <edge id=":J4_0" function="internal">
        <lane id=":J4_0_0" index="0" speed="4.18" length="1.28" shape="125.20,-73.48 125.00,-73.73 124.75,-73.93 124.48,-74.07 124.16,-74.16"/>
        <lane id=":J4_0_1" index="1" speed="6.61" length="3.84" shape="127.85,-75.27 127.23,-76.03 126.50,-76.62 125.67,-77.05 124.72,-77.31"/>
        <lane id=":J4_0_2" index="2" speed="8.36" length="6.39" shape="130.51,-77.07 129.47,-78.33 128.25,-79.31 126.86,-80.02 125.29,-80.46"/>
    </edge>
    <edge id=":J5_0" function="internal">
        <lane id=":J5_0_0" index="0" speed="4.35" length="3.30" shape="33.12,-90.46 32.80,-90.50 32.57,-90.50 32.36,-90.43 32.07,-90.28"/>
        <lane id=":J5_0_1" index="1" speed="6.93" length="3.30" shape="33.68,-93.61 32.72,-93.75 32.04,-93.74 31.39,-93.53 30.53,-93.09"/>
        <lane id=":J5_0_2" index="2" speed="8.78" length="3.30" shape="34.25,-96.76 32.65,-97.00 31.51,-96.98 30.43,-96.64 29.00,-95.90"/>
    </edge>
    <edge id=":J6_0" function="internal">
        <lane id=":J6_0_0" index="0" speed="4.06" length="1.54" shape="-41.70,-49.92 -42.03,-49.69 -42.27,-49.41 -42.44,-49.08 -42.52,-48.69"/>
        <lane id=":J6_0_1" index="1" speed="6.38" length="4.63" shape="-43.23,-52.73 -44.21,-52.05 -44.95,-51.20 -45.45,-50.19 -45.70,-49.03"/>
        <lane id=":J6_0_2" index="2" speed="8.06" length="7.72" shape="-44.77,-55.54 -46.40,-54.40 -47.63,-52.99 -48.46,-51.31 -48.89,-49.37"/>
    </edge>
    <edge id=":J7_0" function="internal">
        <lane id=":J7_0_0" index="0" speed="4.03" length="1.63" shape="-49.84,19.84 -49.84,20.26 -49.73,20.64 -49.53,20.98 -49.23,21.28"/>
        <lane id=":J7_0_1" index="1" speed="6.33" length="4.89" shape="-53.02,19.50 -53.01,20.77 -52.71,21.91 -52.10,22.92 -51.19,23.80"/>
        <lane id=":J7_0_2" index="2" speed="7.99" length="8.16" shape="-56.20,19.16 -56.19,21.27 -55.68,23.17 -54.67,24.86 -53.15,26.33"/>
    </edge>

    <edge id="E0" from="J0" to="J1" priority="-1">
        <lane id="E0_0" index="0" speed="13.89" length="68.48" shape="23.62,73.38 92.09,73.71"/>
        <lane id="E0_1" index="1" speed="13.89" length="68.48" shape="23.60,76.58 92.08,76.91"/>
        <lane id="E0_2" index="2" speed="13.89" length="68.48" shape="23.59,79.78 92.06,80.11"/>
    </edge>
    <edge id="E1" from="J1" to="J2" priority="-1">
        <lane id="E1_0" index="0" speed="13.89" length="70.71" shape="92.92,73.48 153.62,37.21"/>
        <lane id="E1_1" index="1" speed="13.89" length="70.71" shape="94.56,76.23 155.26,39.95"/>
        <lane id="E1_2" index="2" speed="13.89" length="70.71" shape="96.21,78.98 156.90,42.70"/>
    </edge>
    <edge id="E2" from="J2" to="J3" priority="-1">
        <lane id="E2_0" index="0" speed="13.89" length="51.18" shape="154.36,36.16 164.91,-13.92"/>
        <lane id="E2_1" index="1" speed="13.89" length="51.18" shape="157.49,36.82 168.04,-13.26"/>
        <lane id="E2_2" index="2" speed="13.89" length="51.18" shape="160.63,37.48 171.17,-12.60"/>
    </edge>
    <edge id="E3" from="J3" to="J4" priority="-1">
        <lane id="E3_0" index="0" speed="13.89" length="70.43" shape="164.67,-15.15 125.20,-73.48"/>
        <lane id="E3_1" index="1" speed="13.89" length="70.43" shape="167.32,-16.94 127.85,-75.27"/>
        <lane id="E3_2" index="2" speed="13.89" length="70.43" shape="169.97,-18.73 130.51,-77.07"/>
    </edge>
    <edge id="E4" from="J4" to="J5" priority="-1">
        <lane id="E4_0" index="0" speed="13.89" length="92.49" shape="124.16,-74.16 33.12,-90.46"/>
        <lane id="E4_1" index="1" speed="13.89" length="92.49" shape="124.72,-77.31 33.68,-93.61"/>
        <lane id="E4_2" index="2" speed="13.89" length="92.49" shape="125.29,-80.46 34.25,-96.76"/>
    </edge>
    <edge id="E5" from="J5" to="J6" priority="-1">
        <lane id="E5_0" index="0" speed="13.89" length="84.09" shape="32.07,-90.28 -41.70,-49.92"/>
        <lane id="E5_1" index="1" speed="13.89" length="84.09" shape="30.53,-93.09 -43.23,-52.73"/>
        <lane id="E5_2" index="2" speed="13.89" length="84.09" shape="29.00,-95.90 -44.77,-55.54"/>
    </edge>
    <edge id="E6" from="J6" to="J7" priority="-1">
        <lane id="E6_0" index="0" speed="13.89" length="68.92" shape="-42.52,-48.69 -49.84,19.84"/>
        <lane id="E6_1" index="1" speed="13.89" length="68.92" shape="-45.70,-49.03 -53.02,19.50"/>
        <lane id="E6_2" index="2" speed="13.89" length="68.92" shape="-48.89,-49.37 -56.20,19.16"/>
    </edge>
    <edge id="E7" from="J7" to="J0" priority="-1">
        <lane id="E7_0" index="0" speed="13.89" length="71.68" shape="-49.23,21.28 7.40,65.22"/>
        <lane id="E7_1" index="1" speed="13.89" length="71.68" shape="-51.19,23.80 5.43,67.75"/>
        <lane id="E7_2" index="2" speed="13.89" length="71.68" shape="-53.15,26.33 3.47,70.28"/>
    </edge>
    <edge id="E8" from="J0" to="J8" priority="-1">
        <lane id="E8_0" index="0" speed="13.89" length="69.45" shape="14.69,63.47 44.24,0.62"/>
        <lane id="E8_1" index="1" speed="13.89" length="69.45" shape="17.58,64.83 47.14,1.99"/>
        <lane id="E8_2" index="2" speed="13.89" length="69.45" shape="20.48,66.19 50.03,3.35"/>
    </edge>

    <junction id="J0" type="priority" x="15.12" y="81.34" incLanes="E7_0 E7_1 E7_2" intLanes=":J0_0_0 :J0_0_1 :J0_0_2 :J0_3_0 :J0_3_1 :J0_3_2" shape="23.58,81.38 23.63,71.78 21.66,71.23 21.20,70.55 21.09,69.59 21.33,68.37 21.93,66.87 13.24,62.79 11.94,64.53 11.17,64.89 10.32,64.92 9.39,64.60 8.38,63.96 2.49,71.54 6.44,74.74 9.46,77.25 12.12,79.12 14.98,80.39 18.62,81.13">
        <request index="0" response="000000" foes="000000" cont="0"/>
        <request index="1" response="000000" foes="000000" cont="0"/>
        <request index="2" response="000000" foes="000000" cont="0"/>
        <request index="3" response="000000" foes="000000" cont="0"/>
        <request index="4" response="000000" foes="000000" cont="0"/>
        <request index="5" response="000000" foes="000000" cont="0"/>
    </junction>
    <junction id="J1" type="priority" x="94.73" y="81.72" incLanes="E0_0 E0_1 E0_2" intLanes=":J1_0_0 :J1_0_1 :J1_0_2" shape="97.03,80.35 92.10,72.11 92.06,81.71 94.00,81.66 94.68,81.53 95.33,81.29 96.07,80.91">
        <request index="0" response="000" foes="000" cont="0"/>
        <request index="1" response="000" foes="000" cont="0"/>
        <request index="2" response="000" foes="000" cont="0"/>
    </junction>
    <junction id="J2" type="priority" x="161.33" y="41.92" incLanes="E1_0 E1_1 E1_2" intLanes=":J2_0_0 :J2_0_1 :J2_0_2" shape="162.19,37.81 152.80,35.83 157.72,44.07 159.82,42.42 160.64,41.43 161.31,40.33 161.83,39.13">
        <request index="0" response="000" foes="000" cont="0"/>
        <request index="1" response="000" foes="000" cont="0"/>
        <request index="2" response="000" foes="000" cont="0"/>
    </junction>
    <junction id="J3" type="priority" x="173.57" y="-16.26" incLanes="E2_0 E2_1 E2_2" intLanes=":J3_0_0 :J3_0_1 :J3_0_2" shape="171.29,-19.63 163.34,-14.25 172.74,-12.27 172.95,-14.86 172.79,-16.10 172.47,-17.31 171.97,-18.49">
        <request index="0" response="000" foes="000" cont="0"/>
        <request index="1" response="000" foes="000" cont="0"/>
        <request index="2" response="000" foes="000" cont="0"/>
    </junction>
    <junction id="J4" type="priority" x="129.56" y="-81.32" incLanes="E3_0 E3_1 E3_2" intLanes=":J4_0_0 :J4_0_1 :J4_0_2" shape="123.88,-72.59 131.83,-77.96 130.13,-79.91 129.13,-80.66 128.04,-81.27 126.85,-81.72 125.57,-82.04">
        <request index="0" response="000" foes="000" cont="0"/>
        <request index="1" response="000" foes="000" cont="0"/>
        <request index="2" response="000" foes="000" cont="0"/>
    </junction>
    <junction id="J5" type="priority" x="31.20" y="-98.93" incLanes="E4_0 E4_1 E4_2" intLanes=":J5_0_0 :J5_0_1 :J5_0_2" shape="32.84,-88.88 34.53,-98.33 32.12,-98.65 31.25,-98.60 30.41,-98.37 29.45,-97.95 28.23,-97.30">
        <request index="0" response="000" foes="000" cont="0"/>
        <request index="1" response="000" foes="000" cont="0"/>
        <request index="2" response="000" foes="000" cont="0"/>
    </junction>
    <junction id="J6" type="priority" x="-49.94" y="-54.53" incLanes="E5_0 E5_1 E5_2" intLanes=":J6_0_0 :J6_0_1 :J6_0_2" shape="-40.93,-48.52 -45.54,-56.94 -48.04,-55.05 -48.98,-53.88 -49.69,-52.58 -50.19,-51.13 -50.48,-49.54">
        <request index="0" response="000" foes="000" cont="0"/>
        <request index="1" response="000" foes="000" cont="0"/>
        <request index="2" response="000" foes="000" cont="0"/>
    </junction>
    <junction id="J7" type="priority" x="-58.36" y="24.31" incLanes="E6_0 E6_1 E6_2" intLanes=":J7_0_0 :J7_0_1 :J7_0_2" shape="-54.13,27.60 -48.25,20.01 -57.79,18.99 -57.64,22.31 -57.16,23.80 -56.42,25.18 -55.41,26.44">
        <request index="0" response="000" foes="000" cont="0"/>
        <request index="1" response="000" foes="000" cont="0"/>
        <request index="2" response="000" foes="000" cont="0"/>
    </junction>
    <junction id="J8" type="dead_end" x="51.48" y="4.03" incLanes="E8_0 E8_1 E8_2" intLanes="" shape="42.79,-0.06 51.48,4.03"/>

    <connection from="E0" to="E1" fromLane="0" toLane="0" via=":J1_0_0" dir="s" state="M"/>
    <connection from="E0" to="E1" fromLane="1" toLane="1" via=":J1_0_1" dir="s" state="M"/>
    <connection from="E0" to="E1" fromLane="2" toLane="2" via=":J1_0_2" dir="s" state="M"/>
    <connection from="E1" to="E2" fromLane="0" toLane="0" via=":J2_0_0" dir="r" state="M"/>
    <connection from="E1" to="E2" fromLane="1" toLane="1" via=":J2_0_1" dir="r" state="M"/>
    <connection from="E1" to="E2" fromLane="2" toLane="2" via=":J2_0_2" dir="r" state="M"/>
    <connection from="E2" to="E3" fromLane="0" toLane="0" via=":J3_0_0" dir="r" state="M"/>
    <connection from="E2" to="E3" fromLane="1" toLane="1" via=":J3_0_1" dir="r" state="M"/>
    <connection from="E2" to="E3" fromLane="2" toLane="2" via=":J3_0_2" dir="r" state="M"/>
    <connection from="E3" to="E4" fromLane="0" toLane="0" via=":J4_0_0" dir="r" state="M"/>
    <connection from="E3" to="E4" fromLane="1" toLane="1" via=":J4_0_1" dir="r" state="M"/>
    <connection from="E3" to="E4" fromLane="2" toLane="2" via=":J4_0_2" dir="r" state="M"/>
    <connection from="E4" to="E5" fromLane="0" toLane="0" via=":J5_0_0" dir="s" state="M"/>
    <connection from="E4" to="E5" fromLane="1" toLane="1" via=":J5_0_1" dir="s" state="M"/>
    <connection from="E4" to="E5" fromLane="2" toLane="2" via=":J5_0_2" dir="s" state="M"/>
    <connection from="E5" to="E6" fromLane="0" toLane="0" via=":J6_0_0" dir="r" state="M"/>
    <connection from="E5" to="E6" fromLane="1" toLane="1" via=":J6_0_1" dir="r" state="M"/>
    <connection from="E5" to="E6" fromLane="2" toLane="2" via=":J6_0_2" dir="r" state="M"/>
    <connection from="E6" to="E7" fromLane="0" toLane="0" via=":J7_0_0" dir="r" state="M"/>
    <connection from="E6" to="E7" fromLane="1" toLane="1" via=":J7_0_1" dir="r" state="M"/>
    <connection from="E6" to="E7" fromLane="2" toLane="2" via=":J7_0_2" dir="r" state="M"/>
    <connection from="E7" to="E8" fromLane="0" toLane="0" via=":J0_0_0" dir="r" state="M"/>
    <connection from="E7" to="E8" fromLane="0" toLane="1" via=":J0_0_1" dir="r" state="M"/>
    <connection from="E7" to="E8" fromLane="0" toLane="2" via=":J0_0_2" dir="r" state="M"/>
    <connection from="E7" to="E0" fromLane="0" toLane="0" via=":J0_3_0" dir="s" state="M"/>
    <connection from="E7" to="E0" fromLane="1" toLane="1" via=":J0_3_1" dir="s" state="M"/>
    <connection from="E7" to="E0" fromLane="2" toLane="2" via=":J0_3_2" dir="s" state="M"/>

    <connection from=":J0_0" to="E8" fromLane="0" toLane="0" dir="r" state="M"/>
    <connection from=":J0_0" to="E8" fromLane="1" toLane="1" dir="r" state="M"/>
    <connection from=":J0_0" to="E8" fromLane="2" toLane="2" dir="r" state="M"/>
    <connection from=":J0_3" to="E0" fromLane="0" toLane="0" dir="s" state="M"/>
    <connection from=":J0_3" to="E0" fromLane="1" toLane="1" dir="s" state="M"/>
    <connection from=":J0_3" to="E0" fromLane="2" toLane="2" dir="s" state="M"/>
    <connection from=":J1_0" to="E1" fromLane="0" toLane="0" dir="s" state="M"/>
    <connection from=":J1_0" to="E1" fromLane="1" toLane="1" dir="s" state="M"/>
    <connection from=":J1_0" to="E1" fromLane="2" toLane="2" dir="s" state="M"/>
    <connection from=":J2_0" to="E2" fromLane="0" toLane="0" dir="r" state="M"/>
    <connection from=":J2_0" to="E2" fromLane="1" toLane="1" dir="r" state="M"/>
    <connection from=":J2_0" to="E2" fromLane="2" toLane="2" dir="r" state="M"/>
    <connection from=":J3_0" to="E3" fromLane="0" toLane="0" dir="r" state="M"/>
    <connection from=":J3_0" to="E3" fromLane="1" toLane="1" dir="r" state="M"/>
    <connection from=":J3_0" to="E3" fromLane="2" toLane="2" dir="r" state="M"/>
    <connection from=":J4_0" to="E4" fromLane="0" toLane="0" dir="r" state="M"/>
    <connection from=":J4_0" to="E4" fromLane="1" toLane="1" dir="r" state="M"/>
    <connection from=":J4_0" to="E4" fromLane="2" toLane="2" dir="r" state="M"/>
    <connection from=":J5_0" to="E5" fromLane="0" toLane="0" dir="s" state="M"/>
    <connection from=":J5_0" to="E5" fromLane="1" toLane="1" dir="s" state="M"/>
    <connection from=":J5_0" to="E5" fromLane="2" toLane="2" dir="s" state="M"/>
    <connection from=":J6_0" to="E6" fromLane="0" toLane="0" dir="r" state="M"/>
    <connection from=":J6_0" to="E6" fromLane="1" toLane="1" dir="r" state="M"/>
    <connection from=":J6_0" to="E6" fromLane="2" toLane="2" dir="r" state="M"/>
    <connection from=":J7_0" to="E7" fromLane="0" toLane="0" dir="r" state="M"/>
    <connection from=":J7_0" to="E7" fromLane="1" toLane="1" dir="r" state="M"/>
    <connection from=":J7_0" to="E7" fromLane="2" toLane="2" dir="r" state="M"/>

</net>
