<?xml version="1.0" encoding="UTF-8"?>

<!-- generated on 2023-03-06 00:01:37 by Eclipse SUMO netedit Version 1.15.0
<configuration xmlns:xsi="http://www.w3.org/2001/XMLSchema-instance" xsi:noNamespaceSchemaLocation="http://sumo.dlr.de/xsd/netconvertConfiguration.xsd">

    <output>
        <output-file value="C:\Users\dell\Desktop\Sumo\demo-traffic\demoTL.net.xml"/>
    </output>

    <processing>
        <offset.disable-normalization value="true"/>
    </processing>

    <junctions>
        <no-turnarounds value="true"/>
    </junctions>

</configuration>
-->

<net version="1.9" junctionCornerDetail="5" limitTurnSpeed="5.50" xmlns:xsi="http://www.w3.org/2001/XMLSchema-instance" xsi:noNamespaceSchemaLocation="http://sumo.dlr.de/xsd/net_file.xsd">

    <location netOffset="0.00,0.00" convBoundary="1103.96,3255.40,1605.71,3494.75" origBoundary="10000000000.00,10000000000.00,-10000000000.00,-10000000000.00" projParameter="!"/>

    <edge id=":J10_0" function="internal">
        <lane id=":J10_0_0" index="0" speed="5.46" length="10.23" shape="1532.88,3267.45 1530.79,3264.81 1529.18,3264.15 1528.05,3265.47 1527.41,3268.78"/>
    </edge>
    <edge id=":J10_1" function="internal">
        <lane id=":J10_1_0" index="0" speed="8.76" length="18.32" shape="1532.88,3267.45 1529.57,3263.65 1525.88,3261.94 1521.81,3262.35 1517.35,3264.86"/>
    </edge>
    <edge id=":J10_2" function="internal">
        <lane id=":J10_2_0" index="0" speed="13.21" length="22.91" shape="1532.88,3267.45 1529.16,3262.88 1524.71,3259.62 1519.52,3257.67 1513.60,3257.03"/>
    </edge>
    <edge id=":J10_3" function="internal">
        <lane id=":J10_3_0" index="0" speed="13.89" length="26.13" shape="1513.59,3253.83 1520.34,3254.56 1526.26,3256.79 1531.33,3260.51 1535.58,3265.73"/>
    </edge>
    <edge id=":J10_4" function="internal">
        <lane id=":J10_4_0" index="0" speed="9.87" length="8.68" shape="1513.59,3253.83 1520.16,3254.75 1521.90,3255.83"/>
    </edge>
    <edge id=":J10_5" function="internal">
        <lane id=":J10_5_0" index="0" speed="7.57" length="9.74" shape="1513.59,3253.83 1520.65,3254.50 1522.83,3256.02"/>
    </edge>
    <edge id=":J10_12" function="internal">
        <lane id=":J10_12_0" index="0" speed="9.87" length="15.08" shape="1521.90,3255.83 1524.66,3257.55 1527.07,3262.23 1527.41,3268.78"/>
    </edge>
    <edge id=":J10_13" function="internal">
        <lane id=":J10_13_0" index="0" speed="7.57" length="11.68" shape="1522.83,3256.02 1523.63,3256.57 1522.53,3260.02 1517.35,3264.86"/>
    </edge>
    <edge id=":J10_6" function="internal">
        <lane id=":J10_6_0" index="0" speed="5.46" length="10.28" shape="1515.40,3262.32 1517.89,3260.00 1518.42,3258.34 1516.99,3257.35 1513.60,3257.03"/>
    </edge>
    <edge id=":J10_7" function="internal">
        <lane id=":J10_7_0" index="0" speed="9.92" length="23.80" shape="1515.40,3262.32 1521.19,3259.07 1526.48,3258.55 1531.27,3260.77 1535.58,3265.73"/>
    </edge>
    <edge id=":J10_8" function="internal">
        <lane id=":J10_8_0" index="0" speed="7.85" length="21.41" shape="1515.40,3262.32 1521.25,3258.82 1525.20,3258.73 1527.25,3262.05 1527.41,3268.78"/>
    </edge>
    <edge id=":J10_9" function="internal">
        <lane id=":J10_9_0" index="0" speed="6.08" length="12.20" shape="1524.22,3268.49 1524.13,3264.67 1522.95,3262.79 1520.70,3262.85 1517.35,3264.86"/>
    </edge>
    <edge id=":J10_10" function="internal">
        <lane id=":J10_10_0" index="0" speed="8.71" length="18.23" shape="1524.22,3268.49 1523.96,3263.46 1522.10,3259.88 1518.65,3257.73 1513.60,3257.03"/>
    </edge>
    <edge id=":J10_11" function="internal">
        <lane id=":J10_11_0" index="0" speed="7.55" length="21.22" shape="1524.22,3268.49 1525.56,3261.62 1527.90,3258.86 1531.24,3260.24 1535.58,3265.73"/>
    </edge>
    <edge id=":J11_0" function="internal">
        <lane id=":J11_0_0" index="0" speed="5.96" length="11.30" shape="1228.66,3265.51 1225.51,3263.38 1223.25,3263.03 1221.88,3264.45 1221.40,3267.65"/>
    </edge>
    <edge id=":J11_1" function="internal">
        <lane id=":J11_1_0" index="0" speed="9.29" length="17.85" shape="1228.66,3265.51 1224.40,3262.76 1220.31,3261.79 1216.39,3262.61 1212.64,3265.21"/>
    </edge>
    <edge id=":J11_2" function="internal">
        <lane id=":J11_2_0" index="0" speed="7.50" length="20.57" shape="1228.66,3265.51 1223.98,3260.68 1223.09,3257.23 1225.99,3255.15 1232.67,3254.45"/>
    </edge>
    <edge id=":J11_3" function="internal">
        <lane id=":J11_3_0" index="0" speed="5.46" length="10.05" shape="1232.68,3257.65 1229.41,3257.99 1227.99,3259.01 1228.43,3260.70 1230.72,3263.05"/>
    </edge>
    <edge id=":J11_4" function="internal">
        <lane id=":J11_4_0" index="0" speed="8.77" length="17.13" shape="1232.68,3257.65 1227.78,3258.28 1224.27,3260.16 1222.14,3263.28 1221.40,3267.65"/>
    </edge>
    <edge id=":J11_5" function="internal">
        <lane id=":J11_5_0" index="0" speed="13.89" length="21.67" shape="1232.68,3257.65 1227.95,3258.35 1222.14,3260.14 1216.59,3262.58 1212.64,3265.21"/>
    </edge>
    <edge id=":J11_6" function="internal">
        <lane id=":J11_6_0" index="0" speed="13.89" length="24.02" shape="1210.43,3262.90 1214.73,3260.12 1221.03,3257.38 1227.59,3255.29 1232.67,3254.45"/>
    </edge>
    <edge id=":J11_7" function="internal">
        <lane id=":J11_7_0" index="0" speed="10.40" length="22.60" shape="1210.43,3262.90 1215.23,3259.54 1220.20,3258.45 1225.37,3259.62 1230.72,3263.05"/>
    </edge>
    <edge id=":J11_8" function="internal">
        <lane id=":J11_8_0" index="0" speed="7.41" length="19.11" shape="1210.43,3262.90 1215.28,3259.22 1218.73,3258.79 1220.77,3261.60 1221.40,3267.65"/>
    </edge>
    <edge id=":J11_9" function="internal">
        <lane id=":J11_9_0" index="0" speed="5.48" length="9.69" shape="1218.20,3267.62 1217.88,3264.55 1216.85,3263.13 1215.10,3263.35 1212.64,3265.21"/>
    </edge>
    <edge id=":J11_10" function="internal">
        <lane id=":J11_10_0" index="0" speed="9.93" length="22.25" shape="1218.20,3267.62 1219.15,3261.87 1221.88,3257.76 1226.38,3255.28 1232.67,3254.45"/>
    </edge>
    <edge id=":J11_11" function="internal">
        <lane id=":J11_11_0" index="0" speed="7.71" length="19.99" shape="1218.20,3267.62 1219.03,3261.73 1221.40,3259.01 1225.29,3259.45 1230.72,3263.05"/>
    </edge>
    <edge id=":J12_0" function="internal">
        <lane id=":J12_0_0" index="0" speed="6.08" length="7.59" shape="1104.86,3369.98 1103.70,3368.26 1103.36,3366.57 1103.83,3364.92 1105.11,3363.29"/>
    </edge>
    <edge id=":J12_1" function="internal">
        <lane id=":J12_1_0" index="0" speed="3.91" length="2.53" shape="1107.32,3365.61 1106.89,3366.15 1106.73,3366.70 1106.85,3367.26 1107.23,3367.84"/>
    </edge>
    <edge id=":J7_0" function="internal">
        <lane id=":J7_0_0" index="0" speed="13.89" length="25.38" shape="1231.17,3494.41 1224.50,3493.76 1218.49,3491.94 1213.16,3488.92 1208.50,3484.72"/>
    </edge>
    <edge id=":J7_1" function="internal">
        <lane id=":J7_1_0" index="0" speed="10.08" length="8.15" shape="1231.17,3494.41 1224.65,3493.50 1223.29,3492.72"/>
    </edge>
    <edge id=":J7_2" function="internal">
        <lane id=":J7_2_0" index="0" speed="7.56" length="8.86" shape="1231.17,3494.41 1224.20,3493.67 1222.70,3492.60"/>
    </edge>
    <edge id=":J7_12" function="internal">
        <lane id=":J7_12_0" index="0" speed="10.08" length="15.01" shape="1223.29,3492.72 1220.01,3490.87 1217.25,3486.54 1216.37,3480.49"/>
    </edge>
    <edge id=":J7_13" function="internal">
        <lane id=":J7_13_0" index="0" speed="7.56" length="12.39" shape="1222.70,3492.60 1221.26,3491.57 1222.34,3488.13 1227.46,3483.33"/>
    </edge>
    <edge id=":J7_3" function="internal">
        <lane id=":J7_3_0" index="0" speed="5.46" length="10.23" shape="1229.41,3485.87 1226.94,3488.18 1226.42,3489.84 1227.84,3490.85 1231.20,3491.21"/>
    </edge>
    <edge id=":J7_4" function="internal">
        <lane id=":J7_4_0" index="0" speed="10.46" length="23.47" shape="1229.41,3485.87 1223.70,3489.18 1218.31,3490.09 1213.24,3488.60 1208.50,3484.72"/>
    </edge>
    <edge id=":J7_5" function="internal">
        <lane id=":J7_5_0" index="0" speed="7.90" length="20.82" shape="1229.41,3485.87 1223.66,3489.33 1219.57,3489.58 1217.14,3486.63 1216.37,3480.49"/>
    </edge>
    <edge id=":J7_6" function="internal">
        <lane id=":J7_6_0" index="0" speed="6.22" length="12.32" shape="1219.57,3480.51 1220.04,3484.04 1221.51,3485.69 1223.98,3485.45 1227.46,3483.33"/>
    </edge>
    <edge id=":J7_7" function="internal">
        <lane id=":J7_7_0" index="0" speed="8.94" length="18.00" shape="1219.57,3480.51 1220.27,3485.16 1222.43,3488.49 1226.08,3490.51 1231.20,3491.21"/>
    </edge>
    <edge id=":J7_8" function="internal">
        <lane id=":J7_8_0" index="0" speed="7.46" length="19.89" shape="1219.57,3480.51 1218.83,3486.90 1216.73,3489.72 1213.29,3489.00 1208.50,3484.72"/>
    </edge>
    <edge id=":J7_9" function="internal">
        <lane id=":J7_9_0" index="0" speed="5.46" length="9.88" shape="1210.87,3482.58 1213.25,3484.70 1214.96,3485.06 1216.00,3483.66 1216.37,3480.49"/>
    </edge>
    <edge id=":J7_10" function="internal">
        <lane id=":J7_10_0" index="0" speed="9.36" length="18.61" shape="1210.87,3482.58 1214.61,3485.61 1218.62,3486.75 1222.90,3485.99 1227.46,3483.33"/>
    </edge>
    <edge id=":J7_11" function="internal">
        <lane id=":J7_11_0" index="0" speed="13.89" length="22.73" shape="1210.87,3482.58 1215.03,3486.32 1219.81,3489.00 1225.20,3490.63 1231.20,3491.21"/>
    </edge>
    <edge id=":J8_0" function="internal">
        <lane id=":J8_0_0" index="0" speed="13.89" length="26.58" shape="1515.04,3485.23 1509.97,3490.09 1504.41,3493.55 1498.34,3495.60 1491.77,3496.25"/>
    </edge>
    <edge id=":J8_1" function="internal">
        <lane id=":J8_1_0" index="0" speed="10.39" length="24.33" shape="1515.04,3485.23 1509.89,3489.79 1504.63,3491.72 1499.26,3491.02 1493.77,3487.69"/>
    </edge>
    <edge id=":J8_2" function="internal">
        <lane id=":J8_2_0" index="0" speed="7.63" length="22.08" shape="1515.04,3485.23 1509.72,3490.32 1506.17,3491.26 1504.39,3488.05 1504.39,3480.68"/>
    </edge>
    <edge id=":J8_3" function="internal">
        <lane id=":J8_3_0" index="0" speed="5.47" length="10.46" shape="1507.57,3480.98 1507.58,3484.47 1508.42,3485.99 1510.10,3485.55 1512.62,3483.13"/>
    </edge>
    <edge id=":J8_4" function="internal">
        <lane id=":J8_4_0" index="0" speed="10.73" length="24.61" shape="1507.57,3480.98 1506.05,3487.70 1502.90,3492.49 1498.15,3495.34 1491.77,3496.25"/>
    </edge>
    <edge id=":J8_5" function="internal">
        <lane id=":J8_5_0" index="0" speed="8.20" length="21.86" shape="1507.57,3480.98 1506.12,3487.75 1503.33,3491.13 1499.21,3491.11 1493.77,3487.69"/>
    </edge>
    <edge id=":J8_6" function="internal">
        <lane id=":J8_6_0" index="0" speed="6.63" length="13.78" shape="1495.82,3485.23 1499.19,3487.32 1501.74,3487.26 1503.47,3485.04 1504.39,3480.68"/>
    </edge>
    <edge id=":J8_7" function="internal">
        <lane id=":J8_7_0" index="0" speed="9.28" length="19.23" shape="1495.82,3485.23 1500.13,3487.83 1504.36,3488.35 1508.53,3486.78 1512.62,3483.13"/>
    </edge>
    <edge id=":J8_8" function="internal">
        <lane id=":J8_8_0" index="0" speed="7.51" length="20.73" shape="1495.82,3485.23 1500.55,3490.10 1501.46,3493.56 1498.53,3495.61 1491.77,3496.25"/>
    </edge>
    <edge id=":J8_9" function="internal">
        <lane id=":J8_9_0" index="0" speed="5.46" length="10.10" shape="1491.79,3493.05 1495.08,3492.74 1496.51,3491.74 1496.07,3490.06 1493.77,3487.69"/>
    </edge>
    <edge id=":J8_10" function="internal">
        <lane id=":J8_10_0" index="0" speed="9.66" length="19.76" shape="1491.79,3493.05 1496.87,3492.31 1500.66,3490.00 1503.16,3486.12 1504.39,3480.68"/>
    </edge>
    <edge id=":J8_11" function="internal">
        <lane id=":J8_11_0" index="0" speed="13.89" length="23.82" shape="1491.79,3493.05 1497.66,3492.47 1503.08,3490.62 1508.07,3487.51 1512.62,3483.13"/>
    </edge>
    <edge id=":J9_0" function="internal">
        <lane id=":J9_0_0" index="0" speed="6.15" length="6.22" shape="1605.76,3375.25 1606.46,3376.74 1606.63,3378.19 1606.26,3379.60 1605.35,3380.98"/>
    </edge>
    <edge id=":J9_1" function="internal">
        <lane id=":J9_1_0" index="0" speed="3.94" length="2.07" shape="1602.93,3378.88 1603.23,3378.43 1603.36,3377.95 1603.30,3377.47 1603.07,3376.97"/>
    </edge>

    <edge id="-E10" from="J9" to="J8" priority="-1">
        <lane id="-E10_0" index="0" speed="13.89" length="137.93" shape="1605.35,3380.98 1515.04,3485.23"/>
    </edge>
    <edge id="-E11" from="J10" to="J9" priority="-1">
        <lane id="-E11_0" index="0" speed="13.89" length="130.08" shape="1535.58,3265.73 1605.76,3375.25"/>
    </edge>
    <edge id="-E12" from="J11" to="J10" priority="-1">
        <lane id="-E12_0" index="0" speed="13.89" length="280.92" shape="1232.67,3254.45 1513.59,3253.83"/>
    </edge>
    <edge id="-E13" from="J12" to="J11" priority="-1">
        <lane id="-E13_0" index="0" speed="13.89" length="145.50" shape="1105.11,3363.29 1210.43,3262.90"/>
    </edge>
    <edge id="-E14" from="J7" to="J12" priority="-1">
        <lane id="-E14_0" index="0" speed="13.89" length="154.62" shape="1208.50,3484.72 1104.86,3369.98"/>
    </edge>
    <edge id="-E15" from="J10" to="J7" priority="-1">
        <lane id="-E15_0" index="0" speed="13.89" length="362.99" shape="1517.35,3264.86 1229.41,3485.87"/>
    </edge>
    <edge id="-E16" from="J8" to="J10" priority="-1">
        <lane id="-E16_0" index="0" speed="13.89" length="213.12" shape="1504.39,3480.68 1524.22,3268.49"/>
    </edge>
    <edge id="-E17" from="J11" to="J8" priority="-1">
        <lane id="-E17_0" index="0" speed="13.89" length="345.90" shape="1230.72,3263.05 1495.82,3485.23"/>
    </edge>
    <edge id="-E18" from="J7" to="J11" priority="-1">
        <lane id="-E18_0" index="0" speed="13.89" length="212.87" shape="1216.37,3480.49 1218.20,3267.62"/>
    </edge>
    <edge id="-E9" from="J8" to="J7" priority="-1">
        <lane id="-E9_0" index="0" speed="13.89" length="260.60" shape="1491.77,3496.25 1231.17,3494.41"/>
    </edge>
    <edge id="E10" from="J8" to="J9" priority="-1">
        <lane id="E10_0" index="0" speed="13.89" length="137.93" shape="1512.62,3483.13 1602.93,3378.88"/>
    </edge>
    <edge id="E11" from="J9" to="J10" priority="-1">
        <lane id="E11_0" index="0" speed="13.89" length="130.08" shape="1603.07,3376.97 1532.88,3267.45"/>
    </edge>
    <edge id="E12" from="J10" to="J11" priority="-1">
        <lane id="E12_0" index="0" speed="13.89" length="280.92" shape="1513.60,3257.03 1232.68,3257.65"/>
    </edge>
    <edge id="E13" from="J11" to="J12" priority="-1">
        <lane id="E13_0" index="0" speed="13.89" length="145.50" shape="1212.64,3265.21 1107.32,3365.61"/>
    </edge>
    <edge id="E14" from="J12" to="J7" priority="-1">
        <lane id="E14_0" index="0" speed="13.89" length="154.62" shape="1107.23,3367.84 1210.87,3482.58"/>
    </edge>
    <edge id="E15" from="J7" to="J10" priority="-1">
        <lane id="E15_0" index="0" speed="13.89" length="362.99" shape="1227.46,3483.33 1515.40,3262.32"/>
    </edge>
    <edge id="E16" from="J10" to="J8" priority="-1">
        <lane id="E16_0" index="0" speed="13.89" length="213.12" shape="1527.41,3268.78 1507.57,3480.98"/>
    </edge>
    <edge id="E17" from="J8" to="J11" priority="-1">
        <lane id="E17_0" index="0" speed="13.89" length="345.90" shape="1493.77,3487.69 1228.66,3265.51"/>
    </edge>
    <edge id="E18" from="J11" to="J7" priority="-1">
        <lane id="E18_0" index="0" speed="13.89" length="212.87" shape="1221.40,3267.65 1219.57,3480.51"/>
    </edge>
    <edge id="E9" from="J7" to="J8" priority="-1">
        <lane id="E9_0" index="0" speed="13.89" length="260.60" shape="1231.20,3491.21 1491.79,3493.05"/>
    </edge>

    <tlLogic id="J10" type="static" programID="0" offset="0">
        <phase duration="27" state="GGGGggrrrrrr"/>
        <phase duration="3"  state="yyyyyyrrrrrr"/>
        <phase duration="27" state="rrrrrrGGGGrr"/>
        <phase duration="3"  state="rrrrrryyyyrr"/>
        <phase duration="27" state="GrrrrrrrrGGG"/>
        <phase duration="3"  state="yrrrrrrrryyy"/>
    </tlLogic>
    <tlLogic id="J11" type="static" programID="0" offset="0">
        <phase duration="18" state="rrrGGGGrrrrr"/>
        <phase duration="3"  state="rrryyyyrrrrr"/>
        <phase duration="20" state="GGGGrrrrrrrr"/>
        <phase duration="3"  state="yyyyrrrrrrrr"/>
        <phase duration="20" state="rrrrrrGGGGrr"/>
        <phase duration="3"  state="rrrrrryyyyrr"/>
        <phase duration="20" state="GrrrrrrrrGGG"/>
        <phase duration="3"  state="yrrrrrrrryyy"/>
    </tlLogic>
    <tlLogic id="J12" type="static" programID="0" offset="0">
        <phase duration="42" state="GG"/>
        <phase duration="3"  state="yy"/>
        <phase duration="42" state="GG"/>
        <phase duration="3"  state="yy"/>
    </tlLogic>
    <tlLogic id="J7" type="static" programID="0" offset="0">
        <phase duration="27" state="GggrrrrrrGGG"/>
        <phase duration="3"  state="yyyrrrrrryyy"/>
        <phase duration="27" state="rrrrrrGGGGrr"/>
        <phase duration="3"  state="rrrrrryyyyrr"/>
        <phase duration="27" state="rrrGGGGrrrrr"/>
        <phase duration="3"  state="rrryyyyrrrrr"/>
    </tlLogic>
    <tlLogic id="J8" type="static" programID="0" offset="0">
        <phase duration="18" state="GrrrrrrrrGGG"/>
        <phase duration="3"  state="yrrrrrrrryyy"/>
        <phase duration="20" state="rrrGGGGrrrrr"/>
        <phase duration="3"  state="rrryyyyrrrrr"/>
        <phase duration="20" state="GGGGrrrrrrrr"/>
        <phase duration="3"  state="yyyyrrrrrrrr"/>
        <phase duration="20" state="rrrrrrGGGGrr"/>
        <phase duration="3"  state="rrrrrryyyyrr"/>
    </tlLogic>

    <junction id="J10" type="traffic_light" x="1527.05" y="3255.40" incLanes="E11_0 -E12_0 E15_0 -E16_0" intLanes=":J10_0_0 :J10_1_0 :J10_2_0 :J10_3_0 :J10_12_0 :J10_13_0 :J10_6_0 :J10_7_0 :J10_8_0 :J10_9_0 :J10_10_0 :J10_11_0" shape="1531.53,3268.32 1536.92,3264.86 1534.02,3260.99 1530.72,3257.83 1527.03,3255.37 1522.94,3253.62 1518.46,3252.57 1513.59,3252.23 1513.60,3258.63 1515.47,3258.89 1515.81,3259.23 1515.75,3259.70 1515.29,3260.31 1514.43,3261.05 1518.33,3266.13 1520.96,3264.72 1521.83,3264.82 1522.40,3265.45 1522.67,3266.63 1522.63,3268.34 1529.00,3268.93 1529.45,3267.09 1529.82,3266.79 1530.29,3266.89 1530.86,3267.40">
        <request index="0"  response="000000000000" foes="000100010000" cont="0"/>
        <request index="1"  response="000000000000" foes="111100110000" cont="0"/>
        <request index="2"  response="000000000000" foes="110011110000" cont="0"/>
        <request index="3"  response="000100000000" foes="100110000000" cont="0"/>
        <request index="4"  response="000000000111" foes="100110000111" cont="1"/>
        <request index="5"  response="000000000110" foes="011110000110" cont="1"/>
        <request index="6"  response="000000000100" foes="010000000100" cont="0"/>
        <request index="7"  response="000000111100" foes="110000111100" cont="0"/>
        <request index="8"  response="000000110011" foes="110000111011" cont="0"/>
        <request index="9"  response="000000100010" foes="000000100010" cont="0"/>
        <request index="10" response="000111100110" foes="000111100110" cont="0"/>
        <request index="11" response="000110011110" foes="000110011110" cont="0"/>
    </junction>
    <junction id="J11" type="traffic_light" x="1219.90" y="3256.08" incLanes="E17_0 E12_0 -E13_0 -E18_0" intLanes=":J11_0_0 :J11_1_0 :J11_2_0 :J11_3_0 :J11_4_0 :J11_5_0 :J11_6_0 :J11_7_0 :J11_8_0 :J11_9_0 :J11_10_0 :J11_11_0" shape="1227.64,3266.73 1231.75,3261.83 1230.49,3260.40 1230.45,3259.90 1230.80,3259.54 1231.54,3259.32 1232.68,3259.25 1232.67,3252.85 1227.23,3252.92 1223.07,3253.25 1219.70,3254.07 1216.62,3255.61 1213.33,3258.09 1209.33,3261.74 1213.74,3266.37 1215.35,3265.28 1215.91,3265.30 1216.30,3265.69 1216.53,3266.46 1216.60,3267.61 1223.00,3267.66 1223.54,3265.44 1224.18,3265.04 1225.08,3265.13 1226.23,3265.69">
        <request index="0"  response="000100010000" foes="000100010000" cont="0"/>
        <request index="1"  response="111100110000" foes="111100110000" cont="0"/>
        <request index="2"  response="110011110000" foes="110011110000" cont="0"/>
        <request index="3"  response="000000000000" foes="100010000000" cont="0"/>
        <request index="4"  response="000000000000" foes="100110000111" cont="0"/>
        <request index="5"  response="000000000000" foes="011110000110" cont="0"/>
        <request index="6"  response="000000000000" foes="010000000100" cont="0"/>
        <request index="7"  response="000000111000" foes="110000111100" cont="0"/>
        <request index="8"  response="000000110000" foes="110000110011" cont="0"/>
        <request index="9"  response="000000100000" foes="000000100010" cont="0"/>
        <request index="10" response="000111100000" foes="000111100110" cont="0"/>
        <request index="11" response="000110011000" foes="000110011110" cont="0"/>
    </junction>
    <junction id="J12" type="traffic_light" x="1103.96" y="3366.60" incLanes="-E14_0 E13_0" intLanes=":J12_0_0 :J12_1_0" shape="1103.67,3371.05 1108.42,3366.76 1104.01,3362.13 1101.96,3365.03 1101.67,3366.51 1101.85,3368.01 1102.52,3369.52">
        <request index="0" response="00" foes="00" cont="0"/>
        <request index="1" response="00" foes="00" cont="0"/>
    </junction>
    <junction id="J7" type="traffic_light" x="1217.87" y="3492.71" incLanes="-E9_0 -E15_0 E18_0 E14_0" intLanes=":J7_0_0 :J7_12_0 :J7_13_0 :J7_3_0 :J7_4_0 :J7_5_0 :J7_6_0 :J7_7_0 :J7_8_0 :J7_9_0 :J7_10_0 :J7_11_0" shape="1231.16,3496.01 1231.21,3489.61 1229.34,3489.32 1229.00,3488.98 1229.06,3488.50 1229.52,3487.89 1230.38,3487.14 1226.48,3482.07 1223.51,3483.72 1222.48,3483.74 1221.74,3483.21 1221.31,3482.14 1221.17,3480.53 1214.77,3480.47 1214.46,3482.37 1214.08,3482.73 1213.55,3482.71 1212.88,3482.30 1212.06,3481.50 1207.31,3485.79 1210.51,3488.89 1214.02,3491.42 1217.84,3493.40 1221.97,3494.83 1226.41,3495.69">
        <request index="0"  response="000000000000" foes="000100110000" cont="0"/>
        <request index="1"  response="111000000000" foes="111100110000" cont="1"/>
        <request index="2"  response="110000000000" foes="110011110000" cont="1"/>
        <request index="3"  response="100000000000" foes="100010000000" cont="0"/>
        <request index="4"  response="100000000111" foes="100110000111" cont="0"/>
        <request index="5"  response="011000000111" foes="011110000111" cont="0"/>
        <request index="6"  response="010000000100" foes="010000000100" cont="0"/>
        <request index="7"  response="110000111100" foes="110000111100" cont="0"/>
        <request index="8"  response="110000110011" foes="110000110011" cont="0"/>
        <request index="9"  response="000000000000" foes="000000100010" cont="0"/>
        <request index="10" response="000000000000" foes="000111100110" cont="0"/>
        <request index="11" response="000000000000" foes="000110011110" cont="0"/>
    </junction>
    <junction id="J8" type="traffic_light" x="1504.68" y="3494.75" incLanes="-E10_0 E16_0 -E17_0 E9_0" intLanes=":J8_0_0 :J8_1_0 :J8_2_0 :J8_3_0 :J8_4_0 :J8_5_0 :J8_6_0 :J8_7_0 :J8_8_0 :J8_9_0 :J8_10_0 :J8_11_0" shape="1516.25,3486.28 1511.41,3482.09 1510.00,3483.32 1509.54,3483.36 1509.25,3483.00 1509.13,3482.26 1509.17,3481.13 1502.79,3480.53 1502.43,3482.81 1501.81,3484.40 1500.94,3485.32 1499.83,3485.56 1498.46,3485.13 1496.85,3484.01 1492.74,3488.91 1494.00,3490.34 1494.04,3490.83 1493.69,3491.19 1492.94,3491.39 1491.80,3491.45 1491.76,3497.85 1496.43,3497.56 1500.87,3496.61 1505.07,3495.01 1509.03,3492.75 1512.76,3489.84">
        <request index="0"  response="000000100000" foes="000100110000" cont="0"/>
        <request index="1"  response="111000000000" foes="111100110000" cont="0"/>
        <request index="2"  response="110000000000" foes="110011110000" cont="0"/>
        <request index="3"  response="100000000000" foes="100010000000" cont="0"/>
        <request index="4"  response="100000000111" foes="100110000111" cont="0"/>
        <request index="5"  response="011000000110" foes="011110000110" cont="0"/>
        <request index="6"  response="010000000100" foes="010000000100" cont="0"/>
        <request index="7"  response="110000111100" foes="110000111100" cont="0"/>
        <request index="8"  response="110000110011" foes="110000110011" cont="0"/>
        <request index="9"  response="000000000000" foes="000000100010" cont="0"/>
        <request index="10" response="000000000000" foes="000111100110" cont="0"/>
        <request index="11" response="000000000000" foes="000110011110" cont="0"/>
    </junction>
    <junction id="J9" type="priority" x="1605.71" y="3378.12" incLanes="-E11_0 E10_0" intLanes=":J9_0_0 :J9_1_0" shape="1607.11,3374.38 1601.72,3377.84 1606.56,3382.03 1608.01,3379.57 1608.26,3378.31 1608.20,3377.02 1607.81,3375.71">
        <request index="0" response="00" foes="00" cont="0"/>
        <request index="1" response="00" foes="00" cont="0"/>
    </junction>

    <junction id=":J10_12_0" type="internal" x="1521.90" y="3255.83" incLanes=":J10_4_0 E11_0" intLanes=":J10_0_0 :J10_1_0 :J10_2_0 :J10_7_0 :J10_8_0 :J10_11_0"/>
    <junction id=":J10_13_0" type="internal" x="1522.83" y="3256.02" incLanes=":J10_5_0 E11_0" intLanes=":J10_1_0 :J10_2_0 :J10_7_0 :J10_8_0 :J10_9_0 :J10_10_0"/>
    <junction id=":J7_12_0" type="internal" x="1223.29" y="3492.72" incLanes=":J7_1_0 E14_0" intLanes=":J7_4_0 :J7_5_0 :J7_8_0 :J7_9_0 :J7_10_0 :J7_11_0"/>
    <junction id=":J7_13_0" type="internal" x="1222.70" y="3492.60" incLanes=":J7_2_0 E14_0" intLanes=":J7_4_0 :J7_5_0 :J7_6_0 :J7_7_0 :J7_10_0 :J7_11_0"/>

    <connection from="-E10" to="-E9" fromLane="0" toLane="0" via=":J8_0_0" tl="J8" linkIndex="0" dir="L" state="O"/>
    <connection from="-E10" to="E17" fromLane="0" toLane="0" via=":J8_1_0" tl="J8" linkIndex="1" dir="L" state="o"/>
    <connection from="-E10" to="-E16" fromLane="0" toLane="0" via=":J8_2_0" tl="J8" linkIndex="2" dir="l" state="o"/>
    <connection from="-E11" to="-E10" fromLane="0" toLane="0" via=":J9_0_0" dir="l" state="M"/>
    <connection from="-E12" to="-E11" fromLane="0" toLane="0" via=":J10_3_0" tl="J10" linkIndex="3" dir="L" state="O"/>
    <connection from="-E12" to="E16" fromLane="0" toLane="0" via=":J10_4_0" tl="J10" linkIndex="4" dir="l" state="o"/>
    <connection from="-E12" to="-E15" fromLane="0" toLane="0" via=":J10_5_0" tl="J10" linkIndex="5" dir="l" state="o"/>
    <connection from="-E13" to="-E12" fromLane="0" toLane="0" via=":J11_6_0" tl="J11" linkIndex="6" dir="s" state="O"/>
    <connection from="-E13" to="-E17" fromLane="0" toLane="0" via=":J11_7_0" tl="J11" linkIndex="7" dir="L" state="o"/>
    <connection from="-E13" to="E18" fromLane="0" toLane="0" via=":J11_8_0" tl="J11" linkIndex="8" dir="l" state="o"/>
    <connection from="-E14" to="-E13" fromLane="0" toLane="0" via=":J12_0_0" tl="J12" linkIndex="0" dir="l" state="O"/>
    <connection from="-E15" to="E9" fromLane="0" toLane="0" via=":J7_3_0" tl="J7" linkIndex="3" dir="r" state="o"/>
    <connection from="-E15" to="-E14" fromLane="0" toLane="0" via=":J7_4_0" tl="J7" linkIndex="4" dir="L" state="o"/>
    <connection from="-E15" to="-E18" fromLane="0" toLane="0" via=":J7_5_0" tl="J7" linkIndex="5" dir="l" state="o"/>
    <connection from="-E16" to="-E15" fromLane="0" toLane="0" via=":J10_9_0" tl="J10" linkIndex="9" dir="r" state="o"/>
    <connection from="-E16" to="E12" fromLane="0" toLane="0" via=":J10_10_0" tl="J10" linkIndex="10" dir="r" state="o"/>
    <connection from="-E16" to="-E11" fromLane="0" toLane="0" via=":J10_11_0" tl="J10" linkIndex="11" dir="l" state="o"/>
    <connection from="-E17" to="-E16" fromLane="0" toLane="0" via=":J8_6_0" tl="J8" linkIndex="6" dir="r" state="o"/>
    <connection from="-E17" to="E10" fromLane="0" toLane="0" via=":J8_7_0" tl="J8" linkIndex="7" dir="R" state="o"/>
    <connection from="-E17" to="-E9" fromLane="0" toLane="0" via=":J8_8_0" tl="J8" linkIndex="8" dir="l" state="o"/>
    <connection from="-E18" to="E13" fromLane="0" toLane="0" via=":J11_9_0" tl="J11" linkIndex="9" dir="r" state="o"/>
    <connection from="-E18" to="-E12" fromLane="0" toLane="0" via=":J11_10_0" tl="J11" linkIndex="10" dir="L" state="o"/>
    <connection from="-E18" to="-E17" fromLane="0" toLane="0" via=":J11_11_0" tl="J11" linkIndex="11" dir="l" state="o"/>
    <connection from="-E9" to="-E14" fromLane="0" toLane="0" via=":J7_0_0" tl="J7" linkIndex="0" dir="L" state="O"/>
    <connection from="-E9" to="-E18" fromLane="0" toLane="0" via=":J7_1_0" tl="J7" linkIndex="1" dir="l" state="o"/>
    <connection from="-E9" to="E15" fromLane="0" toLane="0" via=":J7_2_0" tl="J7" linkIndex="2" dir="l" state="o"/>
    <connection from="E10" to="E11" fromLane="0" toLane="0" via=":J9_1_0" dir="r" state="M"/>
    <connection from="E11" to="E16" fromLane="0" toLane="0" via=":J10_0_0" tl="J10" linkIndex="0" dir="r" state="O"/>
    <connection from="E11" to="-E15" fromLane="0" toLane="0" via=":J10_1_0" tl="J10" linkIndex="1" dir="r" state="O"/>
    <connection from="E11" to="E12" fromLane="0" toLane="0" via=":J10_2_0" tl="J10" linkIndex="2" dir="R" state="O"/>