<?xml version="1.0" encoding="UTF-8"?>

<!-- generated on 2023-05-02 12:45:16.946209 by osmWebWizard.py v1_15_0+0002-e6790248698
<configuration>
    <allow-fringe.min-length value="1000.0"/>
    <end value="600"/>
    <fringe-factor value="5"/>
    <fringe-start-attributes value="departSpeed=&quot;max&quot;"/>
    <insertion-density value="200.0"/>
    <lanes value="True"/>
    <min-distance.fringe value="10.0"/>
    <min-distance value="300.0"/>
    <net-file value="C:\Users\dell\Sumo\2023-05-02-12-44-32\osm.net.xml.gz"/>
    <remove-loops value="True"/>
    <route-file value="C:\Users\dell\Sumo\2023-05-02-12-44-32\osm.passenger.rou.xml"/>
    <trip-attributes value="departLane=&quot;best&quot;"/>
    <output-trip-file value="C:\Users\dell\Sumo\2023-05-02-12-44-32\osm.passenger.trips.xml"/>
    <prefix value="veh"/>
    <validate value="True"/>
    <vehicle-class value="passenger"/>
</configuration>
-->

<!-- generated on 2023-05-02 12:45:14 by Eclipse SUMO duarouter Version 1.15.0
<configuration xmlns:xsi="http://www.w3.org/2001/XMLSchema-instance" xsi:noNamespaceSchemaLocation="http://sumo.dlr.de/xsd/duarouterConfiguration.xsd">

    <input>
        <net-file value="C:\Users\dell\Sumo\2023-05-02-12-44-32\osm.net.xml.gz"/>
        <route-files value="C:\Users\dell\Sumo\2023-05-02-12-44-32\osm.passenger.trips.xml"/>
    </input>

    <output>
        <output-file value="C:\Users\dell\Sumo\2023-05-02-12-44-32\osm.passenger.trips.xml.tmp"/>
        <alternatives-output value="NUL"/>
        <write-trips value="true"/>
    </output>

    <processing>
        <remove-loops value="true"/>
    </processing>

    <time>
        <begin value="0"/>
        <end value="600"/>
    </time>

    <report>
        <no-warnings value="true"/>
        <ignore-errors value="true"/>
        <no-step-log value="true"/>
    </report>

</configuration>
-->

<routes xmlns:xsi="http://www.w3.org/2001/XMLSchema-instance" xsi:noNamespaceSchemaLocation="http://sumo.dlr.de/xsd/routes_file.xsd">
    <vType id="veh_passenger" vClass="passenger"/>
    <trip id="veh0" type="veh_passenger" depart="0.00" departLane="best" from="105304971#4" to="101994129#4"/>
    <trip id="veh1" type="veh_passenger" depart="0.11" departLane="best" from="1127695805#1" to="105578122#0"/>
    <trip id="veh2" type="veh_passenger" depart="0.22" departLane="best" from="1124391479" to="-105741927#5"/>
    <trip id="veh3" type="veh_passenger" depart="0.33" departLane="best" from="102023536#0" to="101999540#0"/>
    <trip id="veh4" type="veh_passenger" depart="0.44" departLane="best" from="105304971#4" to="102961698#4"/>
    <trip id="veh6" type="veh_passenger" depart="0.66" departLane="best" from="105578144#3" to="103230510#1"/>
    <trip id="veh7" type="veh_passenger" depart="0.77" departLane="best" from="-105578109#0" to="104045582#4"/>
    <trip id="veh8" type="veh_passenger" depart="0.88" departLane="best" from="-1130841856#1" to="101943131#0"/>
    <trip id="veh9" type="veh_passenger" depart="0.99" departLane="best" departSpeed="max" from="1130603776" to="1102881626#0"/>
    <trip id="veh10" type="veh_passenger" depart="1.10" departLane="best" from="52152395#5" to="-103477645#3"/>
    <trip id="veh11" type="veh_passenger" depart="1.21" departLane="best" from="-540134654#1" to="-52152402#10"/>
    <trip id="veh12" type="veh_passenger" depart="1.32" departLane="best" from="115880799#3" to="104227910#11"/>
    <trip id="veh13" type="veh_passenger" depart="1.43" departLane="best" departSpeed="max" from="1130603776" to="1124391478"/>
    <trip id="veh14" type="veh_passenger" depart="1.55" departLane="best" from="1032032666#2" to="563179860#11"/>
    <trip id="veh15" type="veh_passenger" depart="1.66" departLane="best" from="101943153#1" to="103230612#2"/>
    <trip id="veh16" type="veh_passenger" depart="1.77" departLane="best" from="113733885#0" to="104700135#0"/>
    <trip id="veh17" type="veh_passenger" depart="1.88" departLane="best" from="1166212047" to="103594716#19"/>
    <trip id="veh18" type="veh_passenger" depart="1.99" departLane="best" from="1102881626#2" to="-102015135#2"/>
    <trip id="veh19" type="veh_passenger" depart="2.10" departLane="best" from="-105578144#0" to="-113384726#22"/>
    <trip id="veh20" type="veh_passenger" depart="2.21" departLane="best" from="-102192909#12" to="105738776#3"/>
    <trip id="veh21" type="veh_passenger" depart="2.32" departLane="best" from="102945916#4" to="-1130841856#3"/>
    <trip id="veh22" type="veh_passenger" depart="2.43" departLane="best" from="-105258720#14" to="101943113"/>
    <trip id="veh23" type="veh_passenger" depart="2.54" departLane="best" from="101757273#4" to="105019300#1"/>
    <trip id="veh24" type="veh_passenger" depart="2.65" departLane="best" from="-1111799487#1" to="52152366#0"/>
    <trip id="veh25" type="veh_passenger" depart="2.76" departLane="best" from="-105578139#0" to="-104227921#0"/>
    <trip id="veh26" type="veh_passenger" depart="2.87" departLane="best" from="103594716#6" to="1124391477"/>
    <trip id="veh27" type="veh_passenger" depart="2.98" departLane="best" from="-103568952#2" to="101966443#11"/>
    <trip id="veh28" type="veh_passenger" depart="3.09" departLane="best" from="749323218#9" to="-105304971#4"/>
    <trip id="veh29" type="veh_passenger" depart="3.20" departLane="best" from="103477632#0" to="105741954#0"/>
    <trip id="veh30" type="veh_passenger" depart="3.31" departLane="best" from="115771923#0" to="1126641017#2"/>
    <trip id="veh31" type="veh_passenger" depart="3.42" departLane="best" from="105578144#4" to="-101999541#0"/>
    <trip id="veh32" type="veh_passenger" depart="3.53" departLane="best" from="115771928" to="1126728233#3"/>
    <trip id="veh33" type="veh_passenger" depart="3.64" departLane="best" from="104777725#9" to="52152395#1"/>
    <trip id="veh34" type="veh_passenger" depart="3.75" departLane="best" from="27552926#10" to="-52097266#0"/>
    <trip id="veh35" type="veh_passenger" depart="3.86" departLane="best" from="105578159#1" to="101999541#5"/>
    <trip id="veh36" type="veh_passenger" depart="3.97" departLane="best" from="52085865#53" to="-102690990#1"/>
    <trip id="veh37" type="veh_passenger" depart="4.08" departLane="best" from="-1087118364#7" to="-105741927#7"/>
    <trip id="veh38" type="veh_passenger" depart="4.19" departLane="best" from="103477632#4" to="-1111799487#2"/>
    <trip id="veh39" type="veh_passenger" depart="4.30" departLane="best" from="-103594716#8" to="52085865#11"/>
    <trip id="veh40" type="veh_passenger" depart="4.41" departLane="best" from="101999541#0" to="-105578112#1"/>
    <trip id="veh41" type="veh_passenger" depart="4.52" departLane="best" from="995135244" to="103010038#6"/>
    <trip id="veh42" type="veh_passenger" depart="4.64" departLane="best" from="-102825250#1" to="-102015135#6"/>
    <trip id="veh43" type="veh_passenger" depart="4.75" departLane="best" from="-102961698#7" to="1124394722#0"/>
    <trip id="veh44" type="veh_passenger" depart="4.86" departLane="best" from="-1127684588#2" to="102023543#0"/>
    <trip id="veh45" type="veh_passenger" depart="4.97" departLane="best" from="-102023558#2" to="101966443#7"/>
    <trip id="veh46" type="veh_passenger" depart="5.08" departLane="best" from="992291721#7" to="1032031703#1"/>
    <trip id="veh47" type="veh_passenger" depart="5.19" departLane="best" from="563179860#1" to="189921791#1"/>
    <trip id="veh48" type="veh_passenger" depart="5.30" departLane="best" from="101943153#1" to="1124385971#4"/>
    <trip id="veh49" type="veh_passenger" depart="5.41" departLane="best" from="105741941#4" to="1032034246#1"/>
    <trip id="veh50" type="veh_passenger" depart="5.52" departLane="best" from="-1111799487#1" to="-105304971#6"/>
    <trip id="veh51" type="veh_passenger" depart="5.63" departLane="best" from="-103010038#11" to="102192901"/>
    <trip id="veh52" type="veh_passenger" depart="5.74" departLane="best" from="102192909#3" to="52155433#7"/>
    <trip id="veh53" type="veh_passenger" depart="5.85" departLane="best" from="27552926#1" to="-1112459426"/>
    <trip id="veh54" type="veh_passenger" depart="5.96" departLane="best" from="102953478#1" to="-104184037#3"/>
    <trip id="veh55" type="veh_passenger" depart="6.07" departLane="best" from="52085865#48" to="239266478#4"/>
    <trip id="veh57" type="veh_passenger" depart="6.29" departLane="best" from="104311966#0" to="-103477635#6"/>
    <trip id="veh58" type="veh_passenger" depart="6.40" departLane="best" from="1124394722#7" to="-1032034246#7"/>
    <trip id="veh59" type="veh_passenger" depart="6.51" departLane="best" from="1126641014#4" to="103185300#3"/>
    <trip id="veh60" type="veh_passenger" depart="6.62" departLane="best" from="101750899#1" to="-52152279#3"/>
    <trip id="veh61" type="veh_passenger" depart="6.73" departLane="best" from="-101966443#4" to="52152279#0"/>
    <trip id="veh62" type="veh_passenger" depart="6.84" departLane="best" from="27552926#13" to="-113752026#1"/>
    <trip id="veh63" type="veh_passenger" depart="6.95" departLane="best" from="113752026#1" to="102023536#9"/>
    <trip id="veh64" type="veh_passenger" depart="7.06" departLane="best" from="27552926#12" to="52152402#4"/>
    <trip id="veh65" type="veh_passenger" depart="7.17" departLane="best" from="102192909#6" to="102945909#12"/>
    <trip id="veh66" type="veh_passenger" depart="7.28" departLane="best" from="-102023600#11" to="1126611417#4"/>
    <trip id="veh67" type="veh_passenger" depart="7.39" departLane="best" from="1126611417#2" to="1032034245#0"/>
    <trip id="veh68" type="veh_passenger" depart="7.50" departLane="best" from="1029381531#11" to="103230612#0"/>
    <trip id="veh69" type="veh_passenger" depart="7.61" departLane="best" from="-1087118364#8" to="239266478#7"/>
    <trip id="veh70" type="veh_passenger" depart="7.73" departLane="best" from="102023536#11" to="105258720#11"/>
    <trip id="veh71" type="veh_passenger" depart="7.84" departLane="best" from="1032034246#3" to="1124391478"/>
    <trip id="veh73" type="veh_passenger" depart="8.06" departLane="best" from="992291721#5" to="105578144#2"/>
    <trip id="veh74" type="veh_passenger" depart="8.17" departLane="best" from="102023600#11" to="103021791#8"/>
    <trip id="veh75" type="veh_passenger" depart="8.28" departLane="best" from="-103021791#8" to="105578139#0"/>
    <trip id="veh76" type="veh_passenger" depart="8.39" departLane="best" from="52152383#1" to="104045582#1"/>
    <trip id="veh77" type="veh_passenger" depart="8.50" departLane="best" from="-105605195" to="-105578115#1"/>
    <trip id="veh78" type="veh_passenger" depart="8.61" departLane="best" from="-102023600#6" to="105258719#12"/>
    <trip id="veh79" type="veh_passenger" depart="8.72" departLane="best" from="105578144#3" to="52085865#33"/>
    <trip id="veh80" type="veh_passenger" depart="8.83" departLane="best" from="116237632#5" to="102023600#8"/>
    <trip id="veh81" type="veh_passenger" depart="8.94" departLane="best" from="105738779#1" to="-105738792#0"/>
    <trip id="veh82" type="veh_passenger" depart="9.05" departLane="best" from="-105258720#12" to="-1032034246#6"/>
    <trip id="veh83" type="veh_passenger" depart="9.16" departLane="best" from="52152279#9" to="103568951#0"/>
    <trip id="veh85" type="veh_passenger" depart="9.38" departLane="best" departSpeed="max" from="1130603776" to="104227910#3"/>
    <trip id="veh86" type="veh_passenger" depart="9.49" departLane="best" from="-102945909#7" to="102023600#0"/>
    <trip id="veh87" type="veh_passenger" depart="9.60" departLane="best" from="-102023536#13" to="1029381530#3"/>
    <trip id="veh88" type="veh_passenger" depart="9.71" departLane="best" from="1124385971#8" to="105738796#1"/>
    <trip id="veh89" type="veh_passenger" depart="9.82" departLane="best" from="657498010" to="-102945916#0"/>
    <trip id="veh90" type="veh_passenger" depart="9.93" departLane="best" from="-101999555#1" to="-52152402#8"/>
    <trip id="veh91" type="veh_passenger" depart="10.04" departLane="best" from="1166212047" to="-105741941#3"/>
    <trip id="veh92" type="veh_passenger" depart="10.15" departLane="best" from="-104227910#10" to="-102192909#7"/>
    <trip id="veh93" type="veh_passenger" depart="10.26" departLane="best" from="102023536#0" to="-1130841856#5"/>
    <trip id="veh94" type="veh_passenger" depart="10.37" departLane="best" from="-105741927#9" to="52097270#2"/>
    <trip id="veh95" type="veh_passenger" depart="10.48" departLane="best" from="102192906#4" to="189921791#1"/>
    <trip id="veh96" type="veh_passenger" depart="10.59" departLane="best" from="-103230557#2" to="-102015151#4"/>
    <trip id="veh97" type="veh_passenger" depart="10.70" departLane="best" from="995157431" to="115654046#1"/>
    <trip id="veh98" type="veh_passenger" depart="10.82" departLane="best" from="562730848#7" to="52151680#3"/>
    <trip id="veh99" type="veh_passenger" depart="10.93" departLane="best" departSpeed="max" from="116237632#0" to="-103594716#20"/>
    <trip id="veh100" type="veh_passenger" depart="11.04" departLane="best" from="1029381531#9" to="-105258720#5"/>
    <trip id="veh101" type="veh_passenger" depart="11.15" departLane="best" from="101999541#4" to="-102023538#1"/>
    <trip id="veh102" type="veh_passenger" depart="11.26" departLane="best" from="101943153#2" to="696915249"/>
    <trip id="veh103" type="veh_passenger" depart="11.37" departLane="best" from="-1087118364#8" to="1127493386"/>
    <trip id="veh104" type="veh_passenger" depart="11.48" departLane="best" from="102192909#7" to="102023543#3"/>
    <trip id="veh105" type="veh_passenger" depart="11.59" departLane="best" from="-540134654#1" to="992291721#5"/>
    <trip id="veh106" type="veh_passenger" depart="11.70" departLane="best" from="-103230612#7" to="1124385971#1"/>
    <trip id="veh107" type="veh_passenger" depart="11.81" departLane="best" from="-103477635#7" to="-113733885#0"/>
    <trip id="veh108" type="veh_passenger" depart="11.92" departLane="best" from="562730848#7" to="103594716#23"/>
    <trip id="veh109" type="veh_passenger" depart="12.03" departLane="best" from="1032034247#1" to="1124394722#13"/>
    <trip id="veh110" type="veh_passenger" depart="12.14" departLane="best" from="-102023536#4" to="1040260535#1"/>
    <trip id="veh111" type="veh_passenger" depart="12.25" departLane="best" from="102961691#3" to="116237632#3"/>
    <trip id="veh112" type="veh_passenger" depart="12.36" departLane="best" from="103477645#4" to="-540139649#1"/>
    <trip id="veh113" type="veh_passenger" depart="12.47" departLane="best" from="102192909#13" to="-104227901#1"/>
    <trip id="veh114" type="veh_passenger" depart="12.58" departLane="best" from="104184114#3" to="105741927#11"/>
    <trip id="veh115" type="veh_passenger" depart="12.69" departLane="best" from="-105738776#3" to="103021791#8"/>
    <trip id="veh116" type="veh_passenger" depart="12.80" departLane="best" from="50219792#5" to="105741927#6"/>
    <trip id="veh117" type="veh_passenger" depart="12.91" departLane="best" from="104184114#1" to="104700135#2"/>
    <trip id="veh118" type="veh_passenger" depart="13.02" departLane="best" from="102015151#7" to="1040260535#1"/>
    <trip id="veh119" type="veh_passenger" depart="13.13" departLane="best" from="-103021802#2" to="-52152288#4"/>
    <trip id="veh120" type="veh_passenger" depart="13.24" departLane="best" from="-104700132#0" to="1124379128"/>
    <trip id="veh121" type="veh_passenger" depart="13.35" departLane="best" from="105738779#3" to="101999551#0"/>
    <trip id="veh122" type="veh_passenger" depart="13.46" departLane="best" from="105738792#4" to="-113752008#3"/>
    <trip id="veh123" type="veh_passenger" depart="13.57" departLane="best" from="115880799#1" to="1124394722#19"/>
    <trip id="veh124" type="veh_passenger" depart="13.68" departLane="best" from="-102192901" to="102688628#9"/>
    <trip id="veh126" type="veh_passenger" depart="13.91" departLane="best" from="-102192906#2" to="105258720#3"/>
    <trip id="veh127" type="veh_passenger" depart="14.02" departLane="best" from="-1087118364#8" to="-52152288#0"/>
    <trip id="veh128" type="veh_passenger" depart="14.13" departLane="best" from="27552926#2" to="27552926#12"/>
    <trip id="veh129" type="veh_passenger" depart="14.24" departLane="best" from="101757273#3" to="103477684#2"/>
    <trip id="veh130" type="veh_passenger" depart="14.35" departLane="best" from="113752013#1" to="1102881628#2"/>
    <trip id="veh131" type="veh_passenger" depart="14.46" departLane="best" from="-1043345917" to="749323218#2"/>
    <trip id="veh132" type="veh_passenger" depart="14.57" departLane="best" departSpeed="max" from="105578155#0" to="101943143#0"/>
    <trip id="veh133" type="veh_passenger" depart="14.68" departLane="best" from="-113382310" to="-113752008#0"/>
    <trip id="veh134" type="veh_passenger" depart="14.79" departLane="best" from="-105738767#4" to="-52152369#0"/>
    <trip id="veh135" type="veh_passenger" depart="14.90" departLane="best" from="1032034246#7" to="-103010074#4"/>
    <trip id="veh136" type="veh_passenger" depart="15.01" departLane="best" from="-102953478#3" to="103230612#6"/>
    <trip id="veh137" type="veh_passenger" depart="15.12" departLane="best" from="-112697458#0" to="-104227910#14"/>
    <trip id="veh138" type="veh_passenger" depart="15.23" departLane="best" from="1124379127#4" to="-104700135#1"/>
    <trip id="veh139" type="veh_passenger" depart="15.34" departLane="best" from="-105258720#1" to="-1124391474#0"/>
    <trip id="veh140" type="veh_passenger" depart="15.45" departLane="best" from="-102945909#15" to="52085865#33"/>
    <trip id="veh141" type="veh_passenger" depart="15.56" departLane="best" from="115771928" to="-102945909#12"/>
    <trip id="veh142" type="veh_passenger" depart="15.67" departLane="best" from="102023536#13" to="-1130841856#0"/>
    <trip id="veh143" type="veh_passenger" depart="15.78" departLane="best" from="-101757273#4" to="1126641016#2"/>
    <trip id="veh144" type="veh_passenger" depart="15.89" departLane="best" from="-105258720#5" to="-1111799487#0"/>
    <trip id="veh145" type="veh_passenger" depart="16.00" departLane="best" from="1124391486" to="103230612#14"/>
    <trip id="veh146" type="veh_passenger" depart="16.11" departLane="best" from="102023538#0" to="101943143#6"/>
    <trip id="veh147" type="veh_passenger" depart="16.22" departLane="best" from="-102192906#7" to="27552926#3"/>
    <trip id="veh148" type="veh_passenger" depart="16.33" departLane="best" from="52085865#21" to="103230516#0"/>
    <trip id="veh149" type="veh_passenger" depart="16.44" departLane="best" from="113752013#3" to="-103594716#9"/>
    <trip id="veh150" type="veh_passenger" depart="16.55" departLane="best" from="-103477632#2" to="1032031702#3"/>
    <trip id="veh151" type="veh_passenger" depart="16.66" departLane="best" from="-113752026#3" to="52085865#15"/>
    <trip id="veh152" type="veh_passenger" depart="16.77" departLane="best" from="1127839389#2" to="189921791#1"/>
    <trip id="veh153" type="veh_passenger" depart="16.89" departLane="best" departSpeed="max" from="52085865#0" to="105019300#2"/>
    <trip id="veh154" type="veh_passenger" depart="17.00" departLane="best" from="-105741927#8" to="-102953469#1"/>
    <trip id="veh156" type="veh_passenger" depart="17.22" departLane="best" from="101999589#1" to="104777725#0"/>
    <trip id="veh157" type="veh_passenger" depart="17.33" departLane="best" from="-103477635#6" to="52152279#10"/>
    <trip id="veh158" type="veh_passenger" depart="17.44" departLane="best" from="239266478#1" to="563179860#3"/>
    <trip id="veh159" type="veh_passenger" depart="17.55" departLane="best" from="1130841856#4" to="27552926#15"/>
    <trip id="veh160" type="veh_passenger" depart="17.66" departLane="best" from="-101994129#11" to="1124391489#2"/>
    <trip id="veh161" type="veh_passenger" depart="17.77" departLane="best" from="52152288#2" to="-52152279#4"/>
    <trip id="veh162" type="veh_passenger" depart="17.88" departLane="best" from="1127845532#6" to="189921791#1"/>
    <trip id="veh163" type="veh_passenger" depart="17.99" departLane="best" from="1130841856#4" to="1126728233#0"/>
    <trip id="veh164" type="veh_passenger" depart="18.10" departLane="best" from="1126940575#2" to="102961698#6"/>
    <trip id="veh165" type="veh_passenger" depart="18.21" departLane="best" from="1102881626#0" to="1166212048"/>
    <trip id="veh166" type="veh_passenger" depart="18.32" departLane="best" from="-105578115#1" to="-113384726#14"/>
    <trip id="veh167" type="veh_passenger" depart="18.43" departLane="best" from="102658965#5" to="-113752064#5"/>
    <trip id="veh168" type="veh_passenger" depart="18.54" departLane="best" from="1127839389#1" to="-105605188#2"/>
    <trip id="veh169" type="veh_passenger" depart="18.65" departLane="best" from="-101994128#2" to="104227914#3"/>
    <trip id="veh170" type="veh_passenger" depart="18.76" departLane="best" from="-52152279#10" to="-190892041#0"/>
    <trip id="veh171" type="veh_passenger" depart="18.87" departLane="best" from="562730848#1" to="1130841856#6"/>
    <trip id="veh172" type="veh_passenger" depart="18.98" departLane="best" from="105578109#0" to="101999555#9"/>
    <trip id="veh173" type="veh_passenger" depart="19.09" departLane="best" from="61009787#0" to="1032034246#0"/>
    <trip id="veh174" type="veh_passenger" depart="19.20" departLane="best" from="52152302#1" to="-103010074#4"/>
    <trip id="veh175" type="veh_passenger" depart="19.31" departLane="best" from="1124379127#11" to="-104184037#3"/>
    <trip id="veh176" type="veh_passenger" depart="19.42" departLane="best" from="540139649#7" to="-1124391474#2"/>
    <trip id="veh177" type="veh_passenger" depart="19.53" departLane="best" from="-102961698#3" to="102023600#9"/>
    <trip id="veh178" type="veh_passenger" depart="19.64" departLane="best" from="1124385971#7" to="-190892041#2"/>
    <trip id="veh179" type="veh_passenger" depart="19.75" departLane="best" from="-104227910#8" to="103010043#1"/>
    <trip id="veh180" type="veh_passenger" depart="19.86" departLane="best" from="101966443#11" to="103594716#17"/>
    <trip id="veh181" type="veh_passenger" depart="19.98" departLane="best" from="105741953#0" to="1124379127#1"/>
    <trip id="veh183" type="veh_passenger" depart="20.20" departLane="best" from="1032034246#1" to="1124385971#2"/>
    <trip id="veh184" type="veh_passenger" depart="20.31" departLane="best" from="1124391489#1" to="-105738793#2"/>
    <trip id="veh186" type="veh_passenger" depart="20.53" departLane="best" from="-105738776#0" to="-52152369#1"/>
    <trip id="veh187" type="veh_passenger" depart="20.64" departLane="best" from="-115654046#6" to="116237632#18"/>
    <trip id="veh188" type="veh_passenger" depart="20.75" departLane="best" from="1124379127#7" to="-113752008#4"/>
    <trip id="veh189" type="veh_passenger" depart="20.86" departLane="best" from="113752064#10" to="102015135#6"/>
    <trip id="veh190" type="veh_passenger" depart="20.97" departLane="best" from="101999555#0" to="-113733869#3"/>
    <trip id="veh191" type="veh_passenger" depart="21.08" departLane="best" from="1032031704#4" to="102023536#7"/>
    <trip id="veh192" type="veh_passenger" depart="21.19" departLane="best" from="52152366#2" to="105741927#7"/>
    <trip id="veh194" type="veh_passenger" depart="21.41" departLane="best" from="-113382309#6" to="-103230557#1"/>
    <trip id="veh195" type="veh_passenger" depart="21.52" departLane="best" from="101750899#1" to="-113384726#15"/>
    <trip id="veh196" type="veh_passenger" depart="21.63" departLane="best" from="-102023543#5" to="103594716#25"/>
    <trip id="veh197" type="veh_passenger" depart="21.74" departLane="best" from="105578155#2" to="1029381530#0"/>
    <trip id="veh198" type="veh_passenger" depart="21.85" departLane="best" from="102192906#1" to="105258720#5"/>
    <trip id="veh199" type="veh_passenger" depart="21.96" departLane="best" from="1029381531#0" to="52085865#20"/>
    <trip id="veh200" type="veh_passenger" depart="22.07" departLane="best" from="1127839389#2" to="-103594716#7"/>
    <trip id="veh201" type="veh_passenger" depart="22.18" departLane="best" from="102192909#4" to="103021791#2"/>
    <trip id="veh202" type="veh_passenger" depart="22.29" departLane="best" from="105258719#7" to="-52152395#6"/>
    <trip id="veh203" type="veh_passenger" depart="22.40" departLane="best" from="113384726#11" to="1124394722#17"/>
    <trip id="veh204" type="veh_passenger" depart="22.51" departLane="best" from="-105738793#4" to="105578139#0"/>
    <trip id="veh205" type="veh_passenger" depart="22.62" departLane="best" from="-1043345907" to="101994129#11"/>
    <trip id="veh206" type="veh_passenger" depart="22.73" departLane="best" from="105738796#0" to="1029381531#12"/>
    <trip id="veh207" type="veh_passenger" depart="22.84" departLane="best" departSpeed="max" from="116237632#0" to="-102192906#2"/>
    <trip id="veh208" type="veh_passenger" depart="22.95" departLane="best" from="102015135#6" to="105258719#1"/>
    <trip id="veh209" type="veh_passenger" depart="23.07" departLane="best" from="-104227914#1" to="1087118364#6"/>
    <trip id="veh210" type="veh_passenger" depart="23.18" departLane="best" from="102945916#2" to="-105741927#1"/>
    <trip id="veh211" type="veh_passenger" depart="23.29" departLane="best" from="105605179#0" to="-101943122"/>
    <trip id="veh212" type="veh_passenger" depart="23.40" departLane="best" from="1124394722#1" to="1126641016#1"/>
    <trip id="veh213" type="veh_passenger" depart="23.51" departLane="best" from="-102953478#2" to="102023543#9"/>
    <trip id="veh214" type="veh_passenger" depart="23.62" departLane="best" from="-104045582#4" to="540134654#10"/>
    <trip id="veh215" type="veh_passenger" depart="23.73" departLane="best" from="-103021791#4" to="102015151#3"/>
    <trip id="veh216" type="veh_passenger" depart="23.84" departLane="best" from="-105741927#7" to="116237632#19"/>
    <trip id="veh217" type="veh_passenger" depart="23.95" departLane="best" from="1130841853" to="1130841852"/>
    <trip id="veh218" type="veh_passenger" depart="24.06" departLane="best" from="105738779#0" to="749323218#4"/>
    <trip id="veh219" type="veh_passenger" depart="24.17" departLane="best" from="104184114#4" to="52155433#2"/>
    <trip id="veh220" type="veh_passenger" depart="24.28" departLane="best" departSpeed="max" from="50219794#0" to="1043345917"/>
    <trip id="veh221" type="veh_passenger" depart="24.39" departLane="best" from="1124379127#6" to="102961698#3"/>
    <trip id="veh222" type="veh_passenger" depart="24.50" departLane="best" from="-113748571" to="-103230557#1"/>
    <trip id="veh223" type="veh_passenger" depart="24.61" departLane="best" from="50219794#9" to="1124391495#5"/>
    <trip id="veh224" type="veh_passenger" depart="24.72" departLane="best" from="1029381531#10" to="-1087118364#4"/>
    <trip id="veh225" type="veh_passenger" depart="24.83" departLane="best" from="105741927#2" to="105258720#5"/>
    <trip id="veh226" type="veh_passenger" depart="24.94" departLane="best" from="1126611417#2" to="103021802#3"/>
    <trip id="veh227" type="veh_passenger" depart="25.05" departLane="best" from="105019216#4" to="-1127845532#1"/>
    <trip id="veh228" type="veh_passenger" depart="25.16" departLane="best" from="102192907#4" to="-113384726#11"/>
    <trip id="veh229" type="veh_passenger" depart="25.27" departLane="best" from="-1126728233#2" to="-52097270#6"/>
    <trip id="veh230" type="veh_passenger" depart="25.38" departLane="best" from="1032034246#5" to="-103230612#10"/>
    <trip id="veh231" type="veh_passenger" depart="25.49" departLane="best" from="-105738755#1" to="1087118363#4"/>
    <trip id="veh232" type="veh_passenger" depart="25.60" departLane="best" from="101999589#5" to="103230484#1"/>
    <trip id="veh233" type="veh_passenger" depart="25.71" departLane="best" from="102015141#0" to="104777725#3"/>
    <trip id="veh234" type="veh_passenger" depart="25.82" departLane="best" from="102018257#0" to="52085865#30"/>
    <trip id="veh235" type="veh_passenger" depart="25.93" departLane="best" from="103594716#7" to="1087118364#3"/>
    <trip id="veh236" type="veh_passenger" depart="26.04" departLane="best" from="116237632#27" to="1126641014#0"/>
    <trip id="veh237" type="veh_passenger" depart="26.16" departLane="best" from="-101943160#1" to="-101943123"/>
    <trip id="veh238" type="veh_passenger" depart="26.27" departLane="best" from="-562638719#1" to="1124394722#3"/>
    <trip id="veh239" type="veh_passenger" depart="26.38" departLane="best" from="116237632#18" to="52155433#6"/>
    <trip id="veh240" type="veh_passenger" depart="26.49" departLane="best" from="102015151#7" to="1124394722#12"/>
    <trip id="veh241" type="veh_passenger" depart="26.60" departLane="best" from="103230506#1" to="104227910#1"/>
    <trip id="veh242" type="veh_passenger" depart="26.71" departLane="best" from="102023561#4" to="-101994136#6"/>
    <trip id="veh243" type="veh_passenger" depart="26.82" departLane="best" from="52152379#0" to="105741941#2"/>
    <trip id="veh244" type="veh_passenger" depart="26.93" departLane="best" from="101999555#4" to="-103594716#17"/>
    <trip id="veh245" type="veh_passenger" depart="27.04" departLane="best" from="102791559#6" to="1032031702#3"/>
    <trip id="veh246" type="veh_passenger" depart="27.15" departLane="best" from="104777725#5" to="101994129#9"/>
    <trip id="veh247" type="veh_passenger" depart="27.26" departLane="best" from="-101994129#8" to="103477635#5"/>
    <trip id="veh248" type="veh_passenger" depart="27.37" departLane="best" from="-101994129#9" to="-105578112#0"/>
    <trip id="veh249" type="veh_passenger" depart="27.48" departLane="best" from="103230484#3" to="102791559#1"/>